*SPEF "ieee 1481-1999"
*DESIGN "user_proj_example"
*DATE "11:11:11 Fri 11 11, 1111"
*VENDOR "OpenRCX"
*PROGRAM "Parallel Extraction"
*VERSION "1.0"
*DESIGN_FLOW "NAME_SCOPE LOCAL" "PIN_CAP NONE"
*DIVIDER /
*DELIMITER :
*BUS_DELIMITER []
*T_UNIT 1 NS
*C_UNIT 1 PF
*R_UNIT 1 OHM
*L_UNIT 1 HENRY

*NAME_MAP
*1 io_in[0]
*2 io_in[10]
*3 io_in[11]
*4 io_in[12]
*5 io_in[13]
*6 io_in[14]
*7 io_in[15]
*8 io_in[16]
*9 io_in[17]
*10 io_in[18]
*11 io_in[19]
*12 io_in[1]
*13 io_in[20]
*14 io_in[21]
*15 io_in[22]
*16 io_in[23]
*17 io_in[24]
*18 io_in[25]
*19 io_in[26]
*20 io_in[27]
*21 io_in[28]
*22 io_in[29]
*23 io_in[2]
*24 io_in[30]
*25 io_in[31]
*26 io_in[32]
*27 io_in[33]
*28 io_in[34]
*29 io_in[35]
*30 io_in[36]
*31 io_in[37]
*32 io_in[3]
*33 io_in[4]
*34 io_in[5]
*35 io_in[6]
*36 io_in[7]
*37 io_in[8]
*38 io_in[9]
*39 io_oeb[0]
*40 io_oeb[10]
*41 io_oeb[11]
*42 io_oeb[12]
*43 io_oeb[13]
*44 io_oeb[14]
*45 io_oeb[15]
*46 io_oeb[16]
*47 io_oeb[17]
*48 io_oeb[18]
*49 io_oeb[19]
*50 io_oeb[1]
*51 io_oeb[20]
*52 io_oeb[21]
*53 io_oeb[22]
*54 io_oeb[23]
*55 io_oeb[24]
*56 io_oeb[25]
*57 io_oeb[26]
*58 io_oeb[27]
*59 io_oeb[28]
*60 io_oeb[29]
*61 io_oeb[2]
*62 io_oeb[30]
*63 io_oeb[31]
*64 io_oeb[32]
*65 io_oeb[33]
*66 io_oeb[34]
*67 io_oeb[35]
*68 io_oeb[36]
*69 net171
*70 io_oeb[3]
*71 io_oeb[4]
*72 io_oeb[5]
*73 io_oeb[6]
*74 io_oeb[7]
*75 io_oeb[8]
*76 io_oeb[9]
*77 net172
*78 net182
*79 net183
*80 net184
*81 net185
*82 net186
*83 net187
*84 net188
*85 net189
*86 net190
*87 net191
*88 net173
*89 net192
*90 net193
*91 net194
*92 net195
*93 net196
*94 net197
*95 net198
*96 net199
*97 net200
*98 net201
*99 net174
*100 net202
*101 net203
*102 net204
*103 net205
*104 net206
*105 net207
*106 net208
*107 net209
*108 net175
*109 net176
*110 net177
*111 net178
*112 net179
*113 net180
*114 net181
*115 net210
*116 net211
*117 net212
*118 la_data_in[0]
*119 la_data_in[100]
*120 la_data_in[101]
*121 la_data_in[102]
*122 la_data_in[103]
*123 la_data_in[104]
*124 la_data_in[105]
*125 la_data_in[106]
*126 la_data_in[107]
*127 la_data_in[108]
*128 la_data_in[109]
*129 la_data_in[10]
*130 la_data_in[110]
*131 la_data_in[111]
*132 la_data_in[112]
*133 la_data_in[113]
*134 la_data_in[114]
*135 la_data_in[115]
*136 la_data_in[116]
*137 la_data_in[117]
*138 la_data_in[118]
*139 la_data_in[119]
*140 la_data_in[11]
*141 la_data_in[120]
*142 la_data_in[121]
*143 la_data_in[122]
*144 la_data_in[123]
*145 la_data_in[124]
*146 la_data_in[125]
*147 la_data_in[126]
*148 la_data_in[127]
*149 la_data_in[12]
*150 la_data_in[13]
*151 la_data_in[14]
*152 la_data_in[15]
*153 la_data_in[16]
*154 la_data_in[17]
*155 la_data_in[18]
*156 la_data_in[19]
*157 la_data_in[1]
*158 la_data_in[20]
*159 la_data_in[21]
*160 la_data_in[22]
*161 la_data_in[23]
*162 la_data_in[24]
*163 la_data_in[25]
*164 la_data_in[26]
*165 la_data_in[27]
*166 la_data_in[28]
*167 la_data_in[29]
*168 la_data_in[2]
*169 la_data_in[30]
*170 la_data_in[31]
*171 la_data_in[32]
*172 la_data_in[33]
*173 la_data_in[34]
*174 la_data_in[35]
*175 la_data_in[36]
*176 la_data_in[37]
*177 la_data_in[38]
*178 la_data_in[39]
*179 la_data_in[3]
*180 la_data_in[40]
*181 la_data_in[41]
*182 la_data_in[42]
*183 la_data_in[43]
*184 la_data_in[44]
*185 la_data_in[45]
*186 la_data_in[46]
*187 la_data_in[47]
*188 la_data_in[48]
*189 la_data_in[49]
*190 la_data_in[4]
*191 la_data_in[50]
*192 la_data_in[51]
*193 la_data_in[52]
*194 la_data_in[53]
*195 la_data_in[54]
*196 la_data_in[55]
*197 la_data_in[56]
*198 la_data_in[57]
*199 la_data_in[58]
*200 la_data_in[59]
*201 la_data_in[5]
*202 la_data_in[60]
*203 la_data_in[61]
*204 la_data_in[62]
*205 la_data_in[63]
*206 la_data_in[64]
*207 la_data_in[65]
*208 la_data_in[66]
*209 la_data_in[67]
*210 la_data_in[68]
*211 la_data_in[69]
*212 la_data_in[6]
*213 la_data_in[70]
*214 la_data_in[71]
*215 la_data_in[72]
*216 la_data_in[73]
*217 la_data_in[74]
*218 la_data_in[75]
*219 la_data_in[76]
*220 la_data_in[77]
*221 la_data_in[78]
*222 la_data_in[79]
*223 la_data_in[7]
*224 la_data_in[80]
*225 la_data_in[81]
*226 la_data_in[82]
*227 la_data_in[83]
*228 la_data_in[84]
*229 la_data_in[85]
*230 la_data_in[86]
*231 la_data_in[87]
*232 la_data_in[88]
*233 la_data_in[89]
*234 la_data_in[8]
*235 la_data_in[90]
*236 la_data_in[91]
*237 la_data_in[92]
*238 la_data_in[93]
*239 la_data_in[94]
*240 la_data_in[95]
*241 la_data_in[96]
*242 la_data_in[97]
*243 la_data_in[98]
*244 la_data_in[99]
*245 la_data_in[9]
*246 net213
*247 net292
*248 net293
*249 net294
*250 net295
*251 net296
*252 net297
*253 net298
*254 net299
*255 net300
*256 net301
*257 net223
*258 net302
*259 net303
*260 net304
*261 net305
*262 net306
*263 net307
*264 net308
*265 net309
*266 net310
*267 net311
*268 net224
*269 net312
*270 net313
*271 net314
*272 net315
*273 net316
*274 net317
*275 net318
*276 net319
*277 net225
*278 net226
*279 net227
*280 net228
*281 net229
*282 net230
*283 net231
*284 net232
*285 net214
*286 net233
*287 net234
*288 net235
*289 net236
*290 net237
*291 net238
*292 net239
*293 net240
*294 net241
*295 net242
*296 net215
*297 la_data_out[30]
*298 net243
*299 la_data_out[32]
*300 la_data_out[33]
*301 la_data_out[34]
*302 net244
*303 la_data_out[36]
*304 la_data_out[37]
*305 la_data_out[38]
*306 la_data_out[39]
*307 net216
*308 la_data_out[40]
*309 la_data_out[41]
*310 la_data_out[42]
*311 la_data_out[43]
*312 la_data_out[44]
*313 la_data_out[45]
*314 la_data_out[46]
*315 la_data_out[47]
*316 la_data_out[48]
*317 la_data_out[49]
*318 net217
*319 la_data_out[50]
*320 la_data_out[51]
*321 la_data_out[52]
*322 net245
*323 net246
*324 net247
*325 net248
*326 net249
*327 net250
*328 net251
*329 net218
*330 net252
*331 net253
*332 net254
*333 net255
*334 net256
*335 net257
*336 net258
*337 net259
*338 net260
*339 net261
*340 net219
*341 net262
*342 net263
*343 net264
*344 net265
*345 net266
*346 net267
*347 net268
*348 net269
*349 net270
*350 net271
*351 net220
*352 net272
*353 net273
*354 net274
*355 net275
*356 net276
*357 net277
*358 net278
*359 net279
*360 net280
*361 net281
*362 net221
*363 net282
*364 net283
*365 net284
*366 net285
*367 net286
*368 net287
*369 net288
*370 net289
*371 net290
*372 net291
*373 net222
*374 la_oenb[0]
*375 la_oenb[100]
*376 la_oenb[101]
*377 la_oenb[102]
*378 la_oenb[103]
*379 la_oenb[104]
*380 la_oenb[105]
*381 la_oenb[106]
*382 la_oenb[107]
*383 la_oenb[108]
*384 la_oenb[109]
*385 la_oenb[10]
*386 la_oenb[110]
*387 la_oenb[111]
*388 la_oenb[112]
*389 la_oenb[113]
*390 la_oenb[114]
*391 la_oenb[115]
*392 la_oenb[116]
*393 la_oenb[117]
*394 la_oenb[118]
*395 la_oenb[119]
*396 la_oenb[11]
*397 la_oenb[120]
*398 la_oenb[121]
*399 la_oenb[122]
*400 la_oenb[123]
*401 la_oenb[124]
*402 la_oenb[125]
*403 la_oenb[126]
*404 la_oenb[127]
*405 la_oenb[12]
*406 la_oenb[13]
*407 la_oenb[14]
*408 la_oenb[15]
*409 la_oenb[16]
*410 la_oenb[17]
*411 la_oenb[18]
*412 la_oenb[19]
*413 la_oenb[1]
*414 la_oenb[20]
*415 la_oenb[21]
*416 la_oenb[22]
*417 la_oenb[23]
*418 la_oenb[24]
*419 la_oenb[25]
*420 la_oenb[26]
*421 la_oenb[27]
*422 la_oenb[28]
*423 la_oenb[29]
*424 la_oenb[2]
*425 la_oenb[30]
*426 la_oenb[31]
*427 la_oenb[32]
*428 la_oenb[33]
*429 la_oenb[34]
*430 la_oenb[35]
*431 la_oenb[36]
*432 la_oenb[37]
*433 la_oenb[38]
*434 la_oenb[39]
*435 la_oenb[3]
*436 la_oenb[40]
*437 la_oenb[41]
*438 la_oenb[42]
*439 la_oenb[43]
*440 la_oenb[44]
*441 la_oenb[45]
*442 la_oenb[46]
*443 la_oenb[47]
*444 la_oenb[48]
*445 la_oenb[49]
*446 la_oenb[4]
*447 la_oenb[50]
*448 la_oenb[51]
*449 la_oenb[52]
*450 la_oenb[53]
*451 la_oenb[54]
*452 la_oenb[55]
*453 la_oenb[56]
*454 la_oenb[57]
*455 la_oenb[58]
*456 la_oenb[59]
*457 la_oenb[5]
*458 la_oenb[60]
*459 la_oenb[61]
*460 la_oenb[62]
*461 la_oenb[63]
*462 la_oenb[64]
*463 la_oenb[65]
*464 la_oenb[66]
*465 la_oenb[67]
*466 la_oenb[68]
*467 la_oenb[69]
*468 la_oenb[6]
*469 la_oenb[70]
*470 la_oenb[71]
*471 la_oenb[72]
*472 la_oenb[73]
*473 la_oenb[74]
*474 la_oenb[75]
*475 la_oenb[76]
*476 la_oenb[77]
*477 la_oenb[78]
*478 la_oenb[79]
*479 la_oenb[7]
*480 la_oenb[80]
*481 la_oenb[81]
*482 la_oenb[82]
*483 la_oenb[83]
*484 la_oenb[84]
*485 la_oenb[85]
*486 la_oenb[86]
*487 la_oenb[87]
*488 la_oenb[88]
*489 la_oenb[89]
*490 la_oenb[8]
*491 la_oenb[90]
*492 la_oenb[91]
*493 la_oenb[92]
*494 la_oenb[93]
*495 la_oenb[94]
*496 la_oenb[95]
*497 la_oenb[96]
*498 la_oenb[97]
*499 la_oenb[98]
*500 la_oenb[99]
*501 la_oenb[9]
*504 wb_clk_i
*505 wb_rst_i
*506 net320
*507 wbs_adr_i[0]
*508 wbs_adr_i[10]
*509 wbs_adr_i[11]
*510 wbs_adr_i[12]
*511 wbs_adr_i[13]
*512 wbs_adr_i[14]
*513 wbs_adr_i[15]
*514 wbs_adr_i[16]
*515 wbs_adr_i[17]
*516 wbs_adr_i[18]
*517 wbs_adr_i[19]
*518 wbs_adr_i[1]
*519 wbs_adr_i[20]
*520 wbs_adr_i[21]
*521 wbs_adr_i[22]
*522 wbs_adr_i[23]
*523 wbs_adr_i[24]
*524 wbs_adr_i[25]
*525 wbs_adr_i[26]
*526 wbs_adr_i[27]
*527 wbs_adr_i[28]
*528 wbs_adr_i[29]
*529 wbs_adr_i[2]
*530 wbs_adr_i[30]
*531 wbs_adr_i[31]
*532 wbs_adr_i[3]
*533 wbs_adr_i[4]
*534 wbs_adr_i[5]
*535 wbs_adr_i[6]
*536 wbs_adr_i[7]
*537 wbs_adr_i[8]
*538 wbs_adr_i[9]
*539 wbs_cyc_i
*540 wbs_dat_i[0]
*541 wbs_dat_i[10]
*542 wbs_dat_i[11]
*543 wbs_dat_i[12]
*544 wbs_dat_i[13]
*545 wbs_dat_i[14]
*546 wbs_dat_i[15]
*547 wbs_dat_i[16]
*548 wbs_dat_i[17]
*549 wbs_dat_i[18]
*550 wbs_dat_i[19]
*551 wbs_dat_i[1]
*552 wbs_dat_i[20]
*553 wbs_dat_i[21]
*554 wbs_dat_i[22]
*555 wbs_dat_i[23]
*556 wbs_dat_i[24]
*557 wbs_dat_i[25]
*558 wbs_dat_i[26]
*559 wbs_dat_i[27]
*560 wbs_dat_i[28]
*561 wbs_dat_i[29]
*562 wbs_dat_i[2]
*563 wbs_dat_i[30]
*564 wbs_dat_i[31]
*565 wbs_dat_i[3]
*566 wbs_dat_i[4]
*567 wbs_dat_i[5]
*568 wbs_dat_i[6]
*569 wbs_dat_i[7]
*570 wbs_dat_i[8]
*571 wbs_dat_i[9]
*572 net321
*573 net331
*574 net332
*575 net333
*576 net334
*577 net335
*578 net336
*579 net337
*580 net338
*581 net339
*582 net340
*583 net322
*584 net341
*585 net342
*586 net343
*587 net344
*588 net345
*589 net346
*590 net347
*591 net348
*592 net349
*593 net350
*594 net323
*595 net351
*596 net352
*597 net324
*598 net325
*599 net326
*600 net327
*601 net328
*602 net329
*603 net330
*604 wbs_sel_i[0]
*605 wbs_sel_i[1]
*606 wbs_sel_i[2]
*607 wbs_sel_i[3]
*608 wbs_stb_i
*609 wbs_we_i
*610 _0000_
*611 _0001_
*612 _0002_
*613 _0003_
*614 _0004_
*615 _0005_
*616 _0006_
*617 _0007_
*618 _0008_
*619 _0009_
*620 _0010_
*621 _0011_
*622 _0012_
*623 _0013_
*624 _0014_
*625 _0015_
*626 _0016_
*627 _0017_
*628 _0018_
*629 _0019_
*630 _0020_
*631 _0021_
*632 _0022_
*633 _0023_
*634 _0024_
*635 _0025_
*636 _0026_
*637 _0027_
*638 _0028_
*639 _0029_
*640 _0030_
*641 _0031_
*642 _0032_
*643 _0033_
*644 _0034_
*645 _0035_
*646 _0036_
*647 _0037_
*648 _0038_
*649 _0039_
*650 _0040_
*651 _0041_
*652 _0042_
*653 _0043_
*654 _0044_
*655 _0045_
*656 _0046_
*657 _0047_
*658 _0048_
*659 _0049_
*660 _0050_
*661 _0051_
*662 _0052_
*663 _0053_
*664 _0054_
*665 _0055_
*666 _0056_
*667 _0057_
*668 _0058_
*669 _0059_
*670 _0060_
*671 _0061_
*672 _0062_
*673 _0063_
*674 _0064_
*675 _0065_
*676 _0066_
*677 _0067_
*678 _0068_
*679 _0069_
*680 _0070_
*681 _0071_
*682 _0072_
*683 _0073_
*684 _0074_
*685 _0075_
*686 _0076_
*687 _0077_
*688 _0078_
*689 _0079_
*690 _0080_
*691 _0081_
*692 _0082_
*693 _0083_
*694 _0084_
*695 _0085_
*696 _0086_
*697 _0087_
*698 _0088_
*699 _0089_
*700 _0090_
*701 _0091_
*702 _0092_
*703 _0093_
*704 _0094_
*705 _0095_
*706 _0096_
*707 _0097_
*708 _0098_
*709 _0099_
*710 _0100_
*711 _0101_
*712 _0102_
*713 _0103_
*714 _0104_
*715 _0105_
*716 _0106_
*717 _0107_
*718 _0108_
*719 _0109_
*720 _0110_
*721 _0111_
*722 _0112_
*723 _0113_
*724 _0114_
*725 _0115_
*726 _0116_
*727 _0117_
*728 _0118_
*729 _0119_
*730 _0120_
*731 _0121_
*732 _0122_
*733 _0123_
*734 _0124_
*735 _0125_
*736 _0126_
*737 _0127_
*738 _0128_
*739 _0129_
*740 _0130_
*741 _0131_
*742 _0132_
*743 _0133_
*744 _0134_
*745 _0135_
*746 _0136_
*747 _0137_
*748 _0138_
*749 _0139_
*750 _0140_
*751 _0141_
*752 _0142_
*753 _0143_
*754 _0144_
*755 _0145_
*756 _0146_
*757 _0147_
*758 _0148_
*759 _0149_
*760 _0150_
*761 _0151_
*762 _0152_
*763 _0153_
*764 _0154_
*765 _0155_
*766 _0156_
*767 _0157_
*768 _0158_
*769 _0159_
*770 _0160_
*771 _0161_
*772 _0162_
*773 _0163_
*774 _0164_
*775 _0165_
*776 _0166_
*777 _0167_
*778 _0168_
*779 _0169_
*780 _0170_
*781 _0171_
*782 _0172_
*783 _0173_
*784 _0174_
*785 _0175_
*786 _0176_
*787 _0177_
*788 _0178_
*789 _0179_
*790 _0180_
*791 _0181_
*792 _0182_
*793 _0183_
*794 _0184_
*795 _0185_
*796 _0186_
*797 _0187_
*798 _0188_
*799 _0189_
*800 _0190_
*801 _0191_
*802 _0192_
*803 _0193_
*804 _0194_
*805 _0195_
*806 _0196_
*807 _0197_
*808 _0198_
*809 _0199_
*810 _0200_
*811 _0201_
*812 _0202_
*813 _0203_
*814 _0204_
*815 _0205_
*816 _0206_
*817 _0207_
*818 _0208_
*819 _0209_
*820 _0210_
*821 _0211_
*822 _0212_
*823 _0213_
*824 _0214_
*825 _0215_
*826 _0216_
*827 _0217_
*828 _0218_
*829 _0219_
*830 _0220_
*831 _0221_
*832 _0222_
*833 _0223_
*834 _0224_
*835 _0225_
*836 _0226_
*837 _0227_
*838 _0228_
*839 _0229_
*840 _0230_
*841 _0231_
*842 _0232_
*843 _0233_
*844 _0234_
*845 _0235_
*846 _0236_
*847 _0237_
*848 _0238_
*849 _0239_
*850 _0240_
*851 _0241_
*852 _0242_
*853 _0243_
*854 _0244_
*855 _0245_
*856 _0246_
*857 _0247_
*858 _0248_
*859 _0249_
*860 _0250_
*861 _0251_
*862 _0252_
*863 _0253_
*864 _0254_
*865 _0255_
*866 _0256_
*867 _0257_
*868 _0258_
*869 _0259_
*870 _0260_
*871 _0261_
*872 _0262_
*873 _0263_
*874 _0264_
*875 _0265_
*876 _0266_
*877 _0267_
*878 _0268_
*879 _0269_
*880 _0270_
*881 _0271_
*882 _0272_
*883 _0273_
*884 _0274_
*885 _0275_
*886 _0276_
*887 _0277_
*888 _0278_
*889 _0279_
*890 _0280_
*891 _0281_
*892 _0282_
*893 _0283_
*894 _0284_
*895 _0285_
*896 _0286_
*897 _0287_
*898 _0288_
*899 _0289_
*900 _0290_
*901 _0291_
*902 _0292_
*903 _0293_
*904 _0294_
*905 _0295_
*906 _0296_
*907 _0297_
*908 _0298_
*909 _0299_
*910 _0300_
*911 _0301_
*912 _0302_
*913 _0303_
*914 _0304_
*915 _0305_
*916 _0306_
*917 _0307_
*918 _0308_
*919 _0309_
*920 _0310_
*921 _0311_
*922 _0312_
*923 _0313_
*924 _0314_
*925 _0315_
*926 _0316_
*927 _0317_
*928 _0318_
*929 _0319_
*930 _0320_
*931 _0321_
*932 _0322_
*933 _0323_
*934 _0324_
*935 _0325_
*936 _0326_
*937 _0327_
*938 _0328_
*939 _0329_
*940 _0330_
*941 _0331_
*942 _0332_
*943 _0333_
*944 _0334_
*945 _0335_
*946 _0336_
*947 _0337_
*948 _0338_
*949 _0339_
*950 _0340_
*951 _0341_
*952 _0342_
*953 _0343_
*954 _0344_
*955 _0345_
*956 _0346_
*957 _0347_
*958 _0348_
*959 _0349_
*960 _0350_
*961 _0351_
*962 _0352_
*963 _0353_
*964 _0354_
*965 _0355_
*966 _0356_
*967 _0357_
*968 _0358_
*969 _0359_
*970 _0360_
*971 _0361_
*972 _0362_
*973 _0363_
*974 _0364_
*975 _0365_
*976 _0366_
*977 _0367_
*978 _0368_
*979 _0369_
*980 _0370_
*981 _0371_
*982 _0372_
*983 _0373_
*984 _0374_
*985 _0375_
*986 _0376_
*987 _0377_
*988 _0378_
*989 _0379_
*990 _0380_
*991 _0381_
*992 _0382_
*993 _0383_
*994 _0384_
*995 _0385_
*996 _0386_
*997 _0387_
*998 _0388_
*999 _0389_
*1000 _0390_
*1001 _0391_
*1002 _0392_
*1003 _0393_
*1004 _0394_
*1005 _0395_
*1006 _0396_
*1007 _0397_
*1008 _0398_
*1009 _0399_
*1010 _0400_
*1011 _0401_
*1012 _0402_
*1013 _0403_
*1014 _0404_
*1015 _0405_
*1016 _0406_
*1017 _0407_
*1018 _0408_
*1019 _0409_
*1020 _0410_
*1021 _0411_
*1022 _0412_
*1023 _0413_
*1024 _0414_
*1025 _0415_
*1026 _0416_
*1027 _0417_
*1028 _0418_
*1029 _0419_
*1030 _0420_
*1031 _0421_
*1032 _0422_
*1033 _0423_
*1034 _0424_
*1035 _0425_
*1036 _0426_
*1037 _0427_
*1038 _0428_
*1039 _0429_
*1040 _0430_
*1041 _0431_
*1042 _0432_
*1043 _0433_
*1044 _0434_
*1045 _0435_
*1046 _0436_
*1047 _0437_
*1048 _0438_
*1049 _0439_
*1050 _0440_
*1051 _0441_
*1052 _0442_
*1053 net1
*1054 net10
*1055 net100
*1056 net101
*1057 net102
*1058 net103
*1059 net104
*1060 net105
*1061 net106
*1062 net107
*1063 net108
*1064 net109
*1065 net11
*1066 net110
*1067 net111
*1068 net112
*1069 net113
*1070 net114
*1071 net115
*1072 net116
*1073 net117
*1074 net118
*1075 net119
*1076 net12
*1077 net120
*1078 net121
*1079 net122
*1080 net123
*1081 net124
*1082 net125
*1083 net126
*1084 net127
*1085 net128
*1086 net129
*1087 net13
*1088 net130
*1089 net131
*1090 net132
*1091 net133
*1092 net134
*1093 net135
*1094 net136
*1095 net137
*1096 net138
*1097 net139
*1098 net14
*1099 net140
*1100 net141
*1101 net142
*1102 net143
*1103 net144
*1104 net145
*1105 net146
*1106 net147
*1107 net148
*1108 net149
*1109 net15
*1110 net150
*1111 net151
*1112 net152
*1113 net153
*1114 net154
*1115 net155
*1116 net156
*1117 net157
*1118 net158
*1119 net159
*1120 net16
*1121 net160
*1122 net161
*1123 net162
*1124 net163
*1125 net164
*1126 net165
*1127 net166
*1128 net167
*1129 net168
*1130 net169
*1131 net17
*1132 net170
*1133 net18
*1134 net19
*1135 net2
*1136 net20
*1137 net21
*1138 net22
*1139 net23
*1140 net24
*1141 net25
*1142 net26
*1143 net27
*1144 net28
*1145 net29
*1146 net3
*1147 net30
*1148 net31
*1149 net32
*1150 net33
*1151 net34
*1152 net35
*1153 net36
*1154 net37
*1155 net38
*1156 net39
*1157 net4
*1158 net40
*1159 net41
*1160 net42
*1161 net43
*1162 net44
*1163 net45
*1164 net46
*1165 net47
*1166 net48
*1167 net49
*1168 net5
*1169 net50
*1170 net51
*1171 net52
*1172 net53
*1173 net54
*1174 net55
*1175 net56
*1176 net57
*1177 net58
*1178 net59
*1179 net6
*1180 net60
*1181 net61
*1182 net62
*1183 net63
*1184 net64
*1185 net65
*1186 net66
*1187 net67
*1188 net68
*1189 net69
*1190 net7
*1191 net70
*1192 net71
*1193 net72
*1194 net73
*1195 net74
*1196 net75
*1197 net76
*1198 net77
*1199 net78
*1200 net79
*1201 net8
*1202 net80
*1203 net81
*1204 net82
*1205 net83
*1206 net84
*1207 net85
*1208 net86
*1209 net87
*1210 net88
*1211 net89
*1212 net9
*1213 net90
*1214 net91
*1215 net92
*1216 net93
*1217 net94
*1218 net95
*1219 net96
*1220 net97
*1221 net98
*1222 net99
*1223 wrapper\.DUT_top_control\.DUT_sram_control\.PRE_CLSA
*1224 wrapper\.DUT_top_control\.DUT_sram_control\.PRE_SRAM
*1225 wrapper\.DUT_top_control\.DUT_sram_control\.PRE_VLSA
*1226 wrapper\.DUT_top_control\.DUT_sram_control\.RWLB\[0\]
*1227 wrapper\.DUT_top_control\.DUT_sram_control\.SAEN
*1228 wrapper\.DUT_top_control\.DUT_sram_control\.WE
*1229 wrapper\.DUT_top_control\.DUT_sram_control\.count\[0\]
*1230 wrapper\.DUT_top_control\.DUT_sram_control\.count\[10\]
*1231 wrapper\.DUT_top_control\.DUT_sram_control\.count\[11\]
*1232 wrapper\.DUT_top_control\.DUT_sram_control\.count\[12\]
*1233 wrapper\.DUT_top_control\.DUT_sram_control\.count\[13\]
*1234 wrapper\.DUT_top_control\.DUT_sram_control\.count\[14\]
*1235 wrapper\.DUT_top_control\.DUT_sram_control\.count\[15\]
*1236 wrapper\.DUT_top_control\.DUT_sram_control\.count\[16\]
*1237 wrapper\.DUT_top_control\.DUT_sram_control\.count\[17\]
*1238 wrapper\.DUT_top_control\.DUT_sram_control\.count\[18\]
*1239 wrapper\.DUT_top_control\.DUT_sram_control\.count\[19\]
*1240 wrapper\.DUT_top_control\.DUT_sram_control\.count\[1\]
*1241 wrapper\.DUT_top_control\.DUT_sram_control\.count\[20\]
*1242 wrapper\.DUT_top_control\.DUT_sram_control\.count\[21\]
*1243 wrapper\.DUT_top_control\.DUT_sram_control\.count\[22\]
*1244 wrapper\.DUT_top_control\.DUT_sram_control\.count\[23\]
*1245 wrapper\.DUT_top_control\.DUT_sram_control\.count\[24\]
*1246 wrapper\.DUT_top_control\.DUT_sram_control\.count\[25\]
*1247 wrapper\.DUT_top_control\.DUT_sram_control\.count\[26\]
*1248 wrapper\.DUT_top_control\.DUT_sram_control\.count\[27\]
*1249 wrapper\.DUT_top_control\.DUT_sram_control\.count\[28\]
*1250 wrapper\.DUT_top_control\.DUT_sram_control\.count\[29\]
*1251 wrapper\.DUT_top_control\.DUT_sram_control\.count\[2\]
*1252 wrapper\.DUT_top_control\.DUT_sram_control\.count\[30\]
*1253 wrapper\.DUT_top_control\.DUT_sram_control\.count\[31\]
*1254 wrapper\.DUT_top_control\.DUT_sram_control\.count\[3\]
*1255 wrapper\.DUT_top_control\.DUT_sram_control\.count\[4\]
*1256 wrapper\.DUT_top_control\.DUT_sram_control\.count\[5\]
*1257 wrapper\.DUT_top_control\.DUT_sram_control\.count\[6\]
*1258 wrapper\.DUT_top_control\.DUT_sram_control\.count\[7\]
*1259 wrapper\.DUT_top_control\.DUT_sram_control\.count\[8\]
*1260 wrapper\.DUT_top_control\.DUT_sram_control\.count\[9\]
*1261 wrapper\.DUT_top_control\.DUT_sram_control\.state_reg\[0\]
*1262 wrapper\.DUT_top_control\.DUT_sram_control\.state_reg\[1\]
*1263 wrapper\.DUT_top_control\.DUT_sram_control\.state_reg\[2\]
*1264 wrapper\.DUT_top_control\.DUT_sram_control\.state_reg\[3\]
*1265 wrapper\.DUT_top_control\.DUT_sync_fifo_Output_buffer\.data_in\[0\]
*1266 wrapper\.DUT_top_control\.DUT_sync_fifo_Output_buffer\.fifo_buffer\[0\]\[0\]
*1267 wrapper\.DUT_top_control\.DUT_sync_fifo_Output_buffer\.fifo_buffer\[1\]\[0\]
*1268 wrapper\.DUT_top_control\.DUT_sync_fifo_Output_buffer\.fifo_cnt\[0\]
*1269 wrapper\.DUT_top_control\.DUT_sync_fifo_Output_buffer\.fifo_cnt\[1\]
*1270 wrapper\.DUT_top_control\.DUT_sync_fifo_Output_buffer\.fifo_cnt\[2\]
*1271 wrapper\.DUT_top_control\.DUT_sync_fifo_Output_buffer\.fifo_cnt\[3\]
*1272 wrapper\.DUT_top_control\.DUT_sync_fifo_Output_buffer\.rd_en
*1273 wrapper\.DUT_top_control\.DUT_sync_fifo_Output_buffer\.wr_addr\[0\]
*1274 wrapper\.DUT_top_control\.DUT_sync_fifo_Output_buffer\.wr_addr\[1\]
*1275 wrapper\.DUT_top_control\.DUT_sync_fifo_Output_buffer\.wr_addr\[2\]
*1276 wrapper\.DUT_top_control\.DUT_sync_fifo_Output_buffer\.wr_addr\[3\]
*1277 wrapper\.DUT_top_control\.DUT_sync_fifo_Weight_buffer\.fifo_cnt\[0\]
*1278 wrapper\.DUT_top_control\.DUT_sync_fifo_Weight_buffer\.fifo_cnt\[1\]
*1279 wrapper\.DUT_top_control\.DUT_sync_fifo_Weight_buffer\.fifo_cnt\[2\]
*1280 wrapper\.DUT_top_control\.DUT_sync_fifo_Weight_buffer\.fifo_cnt\[3\]
*1281 wrapper\.DUT_top_control\.DUT_sync_fifo_Weight_buffer\.wr_en
*1282 wrapper\.DUT_top_control\.DUT_sync_fifo_input_buffer\.fifo_cnt\[0\]
*1283 wrapper\.DUT_top_control\.DUT_sync_fifo_input_buffer\.fifo_cnt\[1\]
*1284 wrapper\.DUT_top_control\.DUT_sync_fifo_input_buffer\.fifo_cnt\[2\]
*1285 wrapper\.DUT_top_control\.DUT_sync_fifo_input_buffer\.fifo_cnt\[3\]
*1286 wrapper\.DUT_top_control\.DUT_sync_fifo_input_buffer\.wr_en
*1287 wrapper\.DUT_top_control\.DUT_sync_fifo_instruction_memory\.fifo_cnt\[0\]
*1288 wrapper\.DUT_top_control\.DUT_sync_fifo_instruction_memory\.fifo_cnt\[1\]
*1289 wrapper\.DUT_top_control\.DUT_sync_fifo_instruction_memory\.fifo_cnt\[2\]
*1290 wrapper\.DUT_top_control\.DUT_sync_fifo_instruction_memory\.fifo_cnt\[3\]
*1291 wrapper\.DUT_top_control\.DUT_sync_fifo_instruction_memory\.fifo_cnt\[4\]
*1292 wrapper\.DUT_top_control\.DUT_sync_fifo_instruction_memory\.fifo_cnt\[5\]
*1293 wrapper\.DUT_top_control\.DUT_sync_fifo_instruction_memory\.rd_en
*1294 wrapper\.DUT_top_control\.DUT_sync_fifo_instruction_memory\.wr_en
*1295 wrapper\.DUT_top_control\.Temp_y_reg\[0\]
*1296 wrapper\.DUT_top_control\.Temp_y_reg\[1\]
*1297 wrapper\.DUT_top_control\.Temp_y_reg\[2\]
*1298 wrapper\.DUT_top_control\.Temp_y_reg\[3\]
*1299 wrapper\.DUT_top_control\.count_cycle\[0\]
*1300 wrapper\.DUT_top_control\.count_cycle\[10\]
*1301 wrapper\.DUT_top_control\.count_cycle\[11\]
*1302 wrapper\.DUT_top_control\.count_cycle\[12\]
*1303 wrapper\.DUT_top_control\.count_cycle\[13\]
*1304 wrapper\.DUT_top_control\.count_cycle\[14\]
*1305 wrapper\.DUT_top_control\.count_cycle\[15\]
*1306 wrapper\.DUT_top_control\.count_cycle\[16\]
*1307 wrapper\.DUT_top_control\.count_cycle\[17\]
*1308 wrapper\.DUT_top_control\.count_cycle\[18\]
*1309 wrapper\.DUT_top_control\.count_cycle\[19\]
*1310 wrapper\.DUT_top_control\.count_cycle\[1\]
*1311 wrapper\.DUT_top_control\.count_cycle\[20\]
*1312 wrapper\.DUT_top_control\.count_cycle\[21\]
*1313 wrapper\.DUT_top_control\.count_cycle\[22\]
*1314 wrapper\.DUT_top_control\.count_cycle\[23\]
*1315 wrapper\.DUT_top_control\.count_cycle\[24\]
*1316 wrapper\.DUT_top_control\.count_cycle\[25\]
*1317 wrapper\.DUT_top_control\.count_cycle\[26\]
*1318 wrapper\.DUT_top_control\.count_cycle\[27\]
*1319 wrapper\.DUT_top_control\.count_cycle\[28\]
*1320 wrapper\.DUT_top_control\.count_cycle\[29\]
*1321 wrapper\.DUT_top_control\.count_cycle\[2\]
*1322 wrapper\.DUT_top_control\.count_cycle\[30\]
*1323 wrapper\.DUT_top_control\.count_cycle\[31\]
*1324 wrapper\.DUT_top_control\.count_cycle\[3\]
*1325 wrapper\.DUT_top_control\.count_cycle\[4\]
*1326 wrapper\.DUT_top_control\.count_cycle\[5\]
*1327 wrapper\.DUT_top_control\.count_cycle\[6\]
*1328 wrapper\.DUT_top_control\.count_cycle\[7\]
*1329 wrapper\.DUT_top_control\.count_cycle\[8\]
*1330 wrapper\.DUT_top_control\.count_cycle\[9\]
*1331 wrapper\.DUT_top_control\.halt_IM
*1332 wrapper\.DUT_top_control\.state_reg\[0\]
*1333 wrapper\.DUT_top_control\.state_reg\[1\]
*1334 wrapper\.DUT_top_control\.state_reg\[2\]
*1335 wrapper\.DUT_top_control\.state_reg\[3\]
*1336 wrapper\.EN
*1337 wrapper\.IMC_out\[10\]
*1338 wrapper\.IMC_out\[11\]
*1339 wrapper\.IMC_out\[12\]
*1340 wrapper\.IMC_out\[13\]
*1341 wrapper\.IMC_out\[14\]
*1342 wrapper\.IMC_out\[15\]
*1343 wrapper\.IMC_out\[16\]
*1344 wrapper\.IMC_out\[17\]
*1345 wrapper\.IMC_out\[18\]
*1346 wrapper\.IMC_out\[19\]
*1347 wrapper\.IMC_out\[1\]
*1348 wrapper\.IMC_out\[20\]
*1349 wrapper\.IMC_out\[21\]
*1350 wrapper\.IMC_out\[22\]
*1351 wrapper\.IMC_out\[23\]
*1352 wrapper\.IMC_out\[24\]
*1353 wrapper\.IMC_out\[25\]
*1354 wrapper\.IMC_out\[26\]
*1355 wrapper\.IMC_out\[27\]
*1356 wrapper\.IMC_out\[28\]
*1357 wrapper\.IMC_out\[29\]
*1358 wrapper\.IMC_out\[2\]
*1359 wrapper\.IMC_out\[30\]
*1360 wrapper\.IMC_out\[31\]
*1361 wrapper\.IMC_out\[32\]
*1362 wrapper\.IMC_out\[33\]
*1363 wrapper\.IMC_out\[34\]
*1364 wrapper\.IMC_out\[35\]
*1365 wrapper\.IMC_out\[36\]
*1366 wrapper\.IMC_out\[37\]
*1367 wrapper\.IMC_out\[38\]
*1368 wrapper\.IMC_out\[39\]
*1369 wrapper\.IMC_out\[3\]
*1370 wrapper\.IMC_out\[40\]
*1371 wrapper\.IMC_out\[41\]
*1372 wrapper\.IMC_out\[42\]
*1373 wrapper\.IMC_out\[43\]
*1374 wrapper\.IMC_out\[44\]
*1375 wrapper\.IMC_out\[45\]
*1376 wrapper\.IMC_out\[46\]
*1377 wrapper\.IMC_out\[47\]
*1378 wrapper\.IMC_out\[48\]
*1379 wrapper\.IMC_out\[49\]
*1380 wrapper\.IMC_out\[4\]
*1381 wrapper\.IMC_out\[50\]
*1382 wrapper\.IMC_out\[51\]
*1383 wrapper\.IMC_out\[52\]
*1384 wrapper\.IMC_out\[53\]
*1385 wrapper\.IMC_out\[54\]
*1386 wrapper\.IMC_out\[55\]
*1387 wrapper\.IMC_out\[56\]
*1388 wrapper\.IMC_out\[57\]
*1389 wrapper\.IMC_out\[58\]
*1390 wrapper\.IMC_out\[59\]
*1391 wrapper\.IMC_out\[5\]
*1392 wrapper\.IMC_out\[60\]
*1393 wrapper\.IMC_out\[61\]
*1394 wrapper\.IMC_out\[62\]
*1395 wrapper\.IMC_out\[63\]
*1396 wrapper\.IMC_out\[6\]
*1397 wrapper\.IMC_out\[7\]
*1398 wrapper\.IMC_out\[8\]
*1399 wrapper\.IMC_out\[9\]
*1400 wrapper\.PRE_A
*1401 FILLER_0_1001
*1402 FILLER_0_1007
*1403 FILLER_0_101
*1404 FILLER_0_1012
*1405 FILLER_0_1019
*1406 FILLER_0_1028
*1407 FILLER_0_1040
*1408 FILLER_0_1047
*1409 FILLER_0_1051
*1410 FILLER_0_1055
*1411 FILLER_0_1063
*1412 FILLER_0_1068
*1413 FILLER_0_1075
*1414 FILLER_0_108
*1415 FILLER_0_1082
*1416 FILLER_0_1090
*1417 FILLER_0_1096
*1418 FILLER_0_11
*1419 FILLER_0_1103
*1420 FILLER_0_1110
*1421 FILLER_0_1118
*1422 FILLER_0_1124
*1423 FILLER_0_113
*1424 FILLER_0_1131
*1425 FILLER_0_1138
*1426 FILLER_0_1146
*1427 FILLER_0_1152
*1428 FILLER_0_1159
*1429 FILLER_0_1166
*1430 FILLER_0_1174
*1431 FILLER_0_1180
*1432 FILLER_0_1187
*1433 FILLER_0_1194
*1434 FILLER_0_1202
*1435 FILLER_0_1208
*1436 FILLER_0_1215
*1437 FILLER_0_122
*1438 FILLER_0_1222
*1439 FILLER_0_1230
*1440 FILLER_0_1236
*1441 FILLER_0_1240
*1442 FILLER_0_1244
*1443 FILLER_0_1253
*1444 FILLER_0_1259
*1445 FILLER_0_1264
*1446 FILLER_0_1271
*1447 FILLER_0_1280
*1448 FILLER_0_129
*1449 FILLER_0_1292
*1450 FILLER_0_1299
*1451 FILLER_0_1303
*1452 FILLER_0_1307
*1453 FILLER_0_1315
*1454 FILLER_0_1320
*1455 FILLER_0_1327
*1456 FILLER_0_1334
*1457 FILLER_0_1342
*1458 FILLER_0_1348
*1459 FILLER_0_1355
*1460 FILLER_0_136
*1461 FILLER_0_1362
*1462 FILLER_0_1370
*1463 FILLER_0_1376
*1464 FILLER_0_1383
*1465 FILLER_0_1390
*1466 FILLER_0_1398
*1467 FILLER_0_1404
*1468 FILLER_0_141
*1469 FILLER_0_1411
*1470 FILLER_0_1418
*1471 FILLER_0_1426
*1472 FILLER_0_1432
*1473 FILLER_0_1439
*1474 FILLER_0_1446
*1475 FILLER_0_145
*1476 FILLER_0_1454
*1477 FILLER_0_1460
*1478 FILLER_0_1467
*1479 FILLER_0_1474
*1480 FILLER_0_1482
*1481 FILLER_0_1488
*1482 FILLER_0_149
*1483 FILLER_0_153
*1484 FILLER_0_157
*1485 FILLER_0_164
*1486 FILLER_0_169
*1487 FILLER_0_176
*1488 FILLER_0_185
*1489 FILLER_0_192
*1490 FILLER_0_197
*1491 FILLER_0_203
*1492 FILLER_0_212
*1493 FILLER_0_216
*1494 FILLER_0_220
*1495 FILLER_0_225
*1496 FILLER_0_23
*1497 FILLER_0_230
*1498 FILLER_0_239
*1499 FILLER_0_248
*1500 FILLER_0_253
*1501 FILLER_0_257
*1502 FILLER_0_266
*1503 FILLER_0_27
*1504 FILLER_0_275
*1505 FILLER_0_279
*1506 FILLER_0_284
*1507 FILLER_0_29
*1508 FILLER_0_293
*1509 FILLER_0_3
*1510 FILLER_0_302
*1511 FILLER_0_309
*1512 FILLER_0_315
*1513 FILLER_0_322
*1514 FILLER_0_332
*1515 FILLER_0_337
*1516 FILLER_0_348
*1517 FILLER_0_356
*1518 FILLER_0_360
*1519 FILLER_0_365
*1520 FILLER_0_37
*1521 FILLER_0_371
*1522 FILLER_0_380
*1523 FILLER_0_384
*1524 FILLER_0_388
*1525 FILLER_0_393
*1526 FILLER_0_398
*1527 FILLER_0_407
*1528 FILLER_0_416
*1529 FILLER_0_421
*1530 FILLER_0_425
*1531 FILLER_0_434
*1532 FILLER_0_443
*1533 FILLER_0_447
*1534 FILLER_0_45
*1535 FILLER_0_452
*1536 FILLER_0_461
*1537 FILLER_0_470
*1538 FILLER_0_477
*1539 FILLER_0_486
*1540 FILLER_0_493
*1541 FILLER_0_500
*1542 FILLER_0_505
*1543 FILLER_0_514
*1544 FILLER_0_52
*1545 FILLER_0_521
*1546 FILLER_0_528
*1547 FILLER_0_533
*1548 FILLER_0_542
*1549 FILLER_0_549
*1550 FILLER_0_556
*1551 FILLER_0_561
*1552 FILLER_0_565
*1553 FILLER_0_569
*1554 FILLER_0_57
*1555 FILLER_0_573
*1556 FILLER_0_577
*1557 FILLER_0_584
*1558 FILLER_0_589
*1559 FILLER_0_596
*1560 FILLER_0_606
*1561 FILLER_0_614
*1562 FILLER_0_617
*1563 FILLER_0_62
*1564 FILLER_0_624
*1565 FILLER_0_628
*1566 FILLER_0_633
*1567 FILLER_0_641
*1568 FILLER_0_649
*1569 FILLER_0_655
*1570 FILLER_0_660
*1571 FILLER_0_668
*1572 FILLER_0_673
*1573 FILLER_0_678
*1574 FILLER_0_682
*1575 FILLER_0_687
*1576 FILLER_0_691
*1577 FILLER_0_696
*1578 FILLER_0_70
*1579 FILLER_0_705
*1580 FILLER_0_709
*1581 FILLER_0_714
*1582 FILLER_0_718
*1583 FILLER_0_723
*1584 FILLER_0_727
*1585 FILLER_0_733
*1586 FILLER_0_74
*1587 FILLER_0_741
*1588 FILLER_0_745
*1589 FILLER_0_750
*1590 FILLER_0_757
*1591 FILLER_0_763
*1592 FILLER_0_768
*1593 FILLER_0_772
*1594 FILLER_0_777